Version 4.1
SHEET 1 880 680
WIRE 224 96 160 96
WIRE 224 160 224 96
WIRE 112 192 112 160
WIRE 64 304 64 96
WIRE 112 304 112 256
WIRE 112 304 64 304
WIRE 224 304 224 240
WIRE 224 304 112 304
SYMBOL diode 96 192 R0
SYMATTR InstName D1
SYMBOL pnp 64 160 R270
SYMATTR InstName Q1
SYMBOL voltage 224 144 R0
SYMATTR InstName V1
